@<TRIPOS>MOLECULE
2or3.pdb
5 4 1 0 0
SMALL
AMBER ff14SB


@<TRIPOS>ATOM
      1 S          -3.3160    1.6920   12.7350 S.o2      1 SO4    1.5428
      2 O1         -1.8090    1.5250   13.0350 O.2       1 SO4   -0.8852
      3 O2         -3.4290    1.5900   11.2400 O.2       1 SO4   -0.8852
      4 O3         -3.9920    0.5480   13.2770 O.co2     1 SO4   -0.8852
      5 O4         -3.5990    3.0210   13.1350 O.co2     1 SO4   -0.8852
@<TRIPOS>BOND
     1    1    2 2
     2    1    3 2
     3    1    4 1
     4    1    5 1
@<TRIPOS>SUBSTRUCTURE
     1 SO4     1 RESIDUE           4 A     SO4     0 ROOT
